Pcp_File_Version=5
*** BLOCK A: BASIC INFORMATION *****************************************
Heading
Welcome to HYDRUS-1D
LUnit  TUnit  MUnit  (indicated units are obligatory for all input data)
cm
days
mmol
lWat   lChem lTemp  lSink lRoot lShort lWDep lScreen lVariabBC lEquil lInverse
 t     f     f      t     t     f      f     t       t         t         f
lSnow  lHP1   lMeteo  lVapor lActiveU lFluxes lIrrig  lPart   lCosmic lDummy
 f       f       f       f       f       t       f       t       f       f
NMat    NLay  CosAlpha
  3       1       1
*** BLOCK B: WATER FLOW INFORMATION ************************************
MaxIt   TolTh   TolH       (maximum number of iterations and tolerances)
  10    0.001      1
TopInf WLayer KodTop InitCond
 t     f      -1       f
BotInf qGWLF FreeD SeepF KodBot DrainF  hSeep
 f     f     t     f     -1      f      0
       wInit        wPrec
         2          2
    hTab1   hTabN
     1e-06   10000
    Model   Hysteresis
      0          0
   thr     ths    Alfa      n         Ks       l
 0.0792    0.47    0.03    1.35          6     0.5 
 0.0813  0.4231   0.019    1.45          8     0.5 
   0.05    0.37  0.0353    3.18     642.98     0.5 
*** BLOCK C: TIME INFORMATION ******************************************
        dt       dtMin       dtMax     DMul    DMul2  ItMin ItMax  MPL
      0.001       1e-05           5     1.3     0.7     3     7   365
      tInit        tMax
          0         861
  lPrintD  nPrintSteps tPrintInterval lEnter
     f           1             0       f
TPrint(1),TPrint(2),...,TPrint(MPL)
        497         498         499         500         501         502 
        503         504         505         506         507         508 
        509         510         511         512         513         514 
        515         516         517         518         519         520 
        521         522         523         524         525         526 
        527         528         529         530         531         532 
        533         534         535         536         537         538 
        539         540         541         542         543         544 
        545         546         547         548         549         550 
        551         552         553         554         555         556 
        557         558         559         560         561         562 
        563         564         565         566         567         568 
        569         570         571         572         573         574 
        575         576         577         578         579         580 
        581         582         583         584         585         586 
        587         588         589         590         591         592 
        593         594         595         596         597         598 
        599         600         601         602         603         604 
        605         606         607         608         609         610 
        611         612         613         614         615         616 
        617         618         619         620         621         622 
        623         624         625         626         627         628 
        629         630         631         632         633         634 
        635         636         637         638         639         640 
        641         642         643         644         645         646 
        647         648         649         650         651         652 
        653         654         655         656         657         658 
        659         660         661         662         663         664 
        665         666         667         668         669         670 
        671         672         673         674         675         676 
        677         678         679         680         681         682 
        683         684         685         686         687         688 
        689         690         691         692         693         694 
        695         696         697         698         699         700 
        701         702         703         704         705         706 
        707         708         709         710         711         712 
        713         714         715         716         717         718 
        719         720         721         722         723         724 
        725         726         727         728         729         730 
        731         732         733         734         735         736 
        737         738         739         740         741         742 
        743         744         745         746         747         748 
        749         750         751         752         753         754 
        755         756         757         758         759         760 
        761         762         763         764         765         766 
        767         768         769         770         771         772 
        773         774         775         776         777         778 
        779         780         781         782         783         784 
        785         786         787         788         789         790 
        791         792         793         794         795         796 
        797         798         799         800         801         802 
        803         804         805         806         807         808 
        809         810         811         812         813         814 
        815         816         817         818         819         820 
        821         822         823         824         825         826 
        827         828         829         830         831         832 
        833         834         835         836         837         838 
        839         840         841         842         843         844 
        845         846         847         848         849         850 
        851         852         853         854         855         856 
        857         858         859         860         861 
*** BLOCK D: ROOT GROWTH INFORMATION ***********************************
iRootDepthEntry
        2
     iRFak     tRMin     tRMed     tRMax     xRMin     xRMed     xRMax   tPeriod
        1       115         0       245         0         0        60      365
*** BLOCK G: ROOT WATER UPTAKE INFORMATION *****************************
     Model  (0 - Feddes, 1 - S shape)  cRootMax    OmegaC
        1                                   1
       h50       P3
     -800         3
*** END OF INPUT FILE 'SELECTOR.IN' ************************************
